data/powersystems/IEEE118/System.m
function mpc = System
%CASE118    Power flow data for IEEE 118 bus test case.
%   Please see CASEFORMAT for details on the case file format.
%   This data was converted from IEEE Common Data Format
%   (ieee118cdf.txt) on 15-Oct-2014 by cdf2matp, rev. 2393
%   See end of file for warnings generated during conversion.
%
%   Converted from IEEE CDF file from:
%       http://www.ee.washington.edu/research/pstca/
%   With baseKV data take from the PSAP format file from the same site,
%   added manually on 10-Mar-2006.
% 
%   08/25/93 UW ARCHIVE           100.0  1961 W IEEE 118 Bus Test Case

%   MATPOWER

%% MATPOWER Case Format : Version 2
mpc.version = '2';

%%-----  Power Flow Data  -----%%
%% system MVA base
mpc.baseMVA = 100;

%% bus data
%	bus_i	type	Pd	Qd	Gs	Bs	area	Vm	Va	baseKV	zone	Vmax	Vmin
mpc.bus = [
	1	1	54.14	8.66	0	0	1	0.95661	-10.613	138	1	1.05	0.94;	%	Riversde	V2
	2	1	21.23	9.55	0	0	1	0.97187	-9.492	138	1	1.06	0.95;	%	Pokagon	V2
	3	1	41.4	10.62	0	0	1	0.96838	-9.954	138	1	1.06	0.95;	%	HickryCk	V2
	4	2	31.85	12.74	0	0	1	0.998	-7.46	138	1	1.09	0.99;	%	NwCarlsl	V2
	5	1	0	0	0	-40	1	1.00127	-7.084	138	1	1.09	0.99;	%	Olive	V2
	6	2	55.2	23.35	0	0	1	0.99	-8.363	138	1	1.09	0.97;	%	Kankakee	V2
	7	1	20.17	2.12	0	0	1	0.98922	-8.431	138	1	1.09	0.97;	%	JacksnRd	V2
	8	2	0	0	0	0	1	1.015	-3.846	345	1	1.09	0.98;	%	Olive	V1
	9	1	0	0	0	0	1	1.04908	0.03	345	1	1.09	0.98;	%	Bequine	V1
	10	2	0	0	0	0	1	1.05	4.161	345	1	1.09	0.98;	%	Breed	V1
	11	1	74.31	24.42	0	0	1	0.98534	-8.461	138	1	1.08	0.97;	%	SouthBnd	V2
	12	2	49.89	10.62	0	0	1	0.99	-8.17	138	1	1.09	0.98;	%	TwinBrch	V2
	13	1	36.09	16.99	0	0	1	0.9685	-9.379	138	1	1.05	0.95;	%	Concord	V2
	14	1	14.86	1.06	0	0	1	0.98362	-8.574	138	1	1.07	0.98;	%	GoshenJt	V2
	15	2	95.54	31.85	0	0	1	0.97	-7.991	138	1	1.05	0.98;	%	FtWayne	V2
	16	1	26.54	10.62	0	0	1	0.98353	-8.223	138	1	1.07	0.98;	%	N.E.	V2
	17	1	11.68	3.18	0	0	1	0.99422	-5.88	138	1	1.09	0.98;	%	Sorenson	V2
	18	2	63.69	36.09	0	0	1	0.973	-6.782	138	1	1.07	0.98;	%	McKinley	V2
	19	2	47.77	26.54	0	0	1	0.96522	-7.809	138	1	1.06	0.98;	%	Lincoln	V2
	20	1	19.11	3.18	0	0	1	0.96208	-8.157	138	1	1.04	0.96;	%	Adams	V2
	21	1	14.86	8.49	0	0	1	0.96385	-7.473	138	1	1.03	0.95;	%	Jay	V2
	22	1	10.62	5.31	0	0	1	0.97522	-5.948	138	1	1.04	0.97;	%	Randolph	V2
	23	1	7.43	3.18	0	0	1	1.00268	-2.651	138	1	1.09	0.98;	%	CollCrnr	V2
	24	2	0	0	0	0	1	0.992	-3.982	138	1	1.09	0.98;	%	Trenton	V2
	25	2	0	0	0	0	1	1.05	3.201	138	1	1.09	0.98;	%	TannrsCk	V2
	26	2	0	0	0	0	1	1.015	4.482	345	1	1.09	0.98;	%	TannrsCk	V1
	27	2	65.82	13.8	0	0	1	0.968	-5.956	138	1	1.09	0.96;	%	Madison	V2
	28	1	18.05	7.43	0	0	1	0.96147	-6.839	138	1	1.08	0.94;	%	Mullin	V2
	29	1	25.48	4.25	0	0	1	0.96292	-6.891	138	1	1.08	0.93;	%	Grant	V2
	30	1	0	0	0	0	1	0.99153	-3.546	345	1	1.06	0.98;	%	Sorenson	V1
	31	2	45.65	28.66	0	0	1	0.967	-6.439	138	1	1.09	0.94;	%	DeerCrk	V2
	32	2	62.63	24.42	0	0	1	0.96872	-5.386	138	1	1.08	0.97;	%	Delaware	V2
	33	1	24.42	9.55	0	0	2	0.97367	-8.739	138	2	1.04	0.96;	%	Haviland	V2
	34	2	62.63	27.6	0	14	2	0.991	-7.992	138	2	1.08	0.97;	%	Rockhill	V2
	35	1	35.03	9.55	0	0	2	0.98723	-7.963	138	2	1.08	0.96;	%	WestLima	V2
	36	2	32.91	18.05	0	0	2	0.98693	-7.815	138	2	1.08	0.96;	%	Sterling	V2
	37	1	0	0	0	-25	2	0.99643	-7.776	138	2	1.09	0.98;	%	EastLima	V2
	38	1	0	0	0	0	2	0.97176	-5.037	345	2	1.04	0.95;	%	EastLima	V1
	39	1	27	11	0	0	2	0.97263	-9.578	138	2	1.09	0.93;	%	NwLibrty	V2
	40	2	20	23	0	0	2	0.97	-9.742	138	2	1.09	0.93;	%	WestEnd	V2
	41	1	37	10	0	0	2	0.96673	-9.956	138	2	1.09	0.93;	%	S.Tiffin	V2
	42	2	37	23	0	0	2	0.985	-7.725	138	2	1.09	0.92;	%	Howard	V2
	43	1	18	7	0	0	2	0.98352	-8.976	138	2	1.06	0.96;	%	S.Kenton	V2
	44	1	16	8	0	10	2	0.98913	-7.885	138	2	1.06	0.97;	%	WMVernon	V2
	45	1	53	22	0	10	2	0.98982	-6.566	138	2	1.06	0.98;	%	N.Newark	V2
	46	2	28	10	0	10	2	1.005	-3.151	138	2	1.09	0.98;	%	W.Lancst	V2
	47	1	34	0	0	0	2	1.01882	-3.482	138	2	1.09	0.98;	%	Crooksvl	V2
	48	1	20	11	0	15	2	1.02103	-3.685	138	2	1.09	0.98;	%	Zanesvll	V2
	49	2	87	30	0	0	2	1.025	-3.205	138	2	1.09	0.98;	%	Philo	V2
	50	1	17	4	0	0	2	1.00272	-4.259	138	2	1.09	0.99;	%	WCambrdg	V2
	51	1	17	8	0	0	2	0.96993	-5.58	138	2	1.07	0.97;	%	Newcmrst	V2
	52	1	18	5	0	0	2	0.95996	-6.167	138	2	1.06	0.97;	%	SCoshoct	V2
	53	1	23	11	0	0	2	0.94746	-6.142	138	2	1.06	0.96;	%	Wooster	V2
	54	2	113	32	0	0	2	0.955	-4.492	138	2	1.09	0.97;	%	Torrey	V2
	55	2	63	22	0	0	2	0.95542	-4.539	138	2	1.09	0.97;	%	Wagenhls	V2
	56	2	84	18	0	0	2	0.95671	-4.744	138	2	1.09	0.97;	%	Sunnysde	V2
	57	1	12	3	0	0	2	0.97334	-4.939	138	2	1.08	0.98;	%	WNwPhil1	V2
	58	1	12	3	0	0	2	0.96197	-5.522	138	2	1.07	0.97;	%	WNwPhil2	V2
	59	2	277	113	0	0	2	0.985	-5.118	138	2	1.09	0.98;	%	Tidd	V2
	60	1	78	3	0	0	2	0.99328	-3.126	138	2	1.09	0.99;	%	SWKammer	V2
	61	2	0	0	0	0	2	0.995	-2.397	138	2	1.09	0.99;	%	W.Kammer	V2
	62	2	77	14	0	0	2	0.998	-2.859	138	2	1.09	0.98;	%	Natrium	V2
	63	1	0	0	0	0	2	0.97098	-3.138	345	2	1.06	0.96;	%	Tidd	V1
	64	1	0	0	0	0	2	0.98518	-2.132	345	2	1.07	0.98;	%	Kammer	V1
	65	2	0	0	0	0	2	1.005	-0.354	345	2	1.07	0.98;	%	Muskngum	V1
	66	2	39	18	0	0	2	1.05	-1.199	138	2	1.09	0.98;	%	Muskngum	V2
	67	1	28	7	0	0	2	1.02022	-2.756	138	2	1.09	0.98;	%	Summerfl	V2
	68	1	0	0	0	0	2	1.00291	-0.56	345	2	1.08	0.98;	%	Sporn	V1
	69	3	0	0	0	0	2	1.035	0	138	2	1.09	0.98;	%	Sporn	V2
	70	2	66	20	0	0	1	0.98493	-5.176	138	1	1.06	0.98;	%	Portsmth	V2
	71	1	0	0	0	0	1	0.98685	-5.998	138	1	1.06	0.99;	%	NPortsmt	V2
	72	2	0	0	0	0	1	0.98	-5.29	138	1	1.09	0.99;	%	Hillsbro	V2
	73	2	0	0	0	0	1	0.991	-7.175	138	1	1.06	0.99;	%	Sargents	V2
	74	2	68	27	0	12	1	0.958	-6.439	138	1	1.03	0.93;	%	Bellefnt	V2
	75	1	47	11	0	0	1	0.97388	-5.419	138	1	1.04	0.94;	%	SthPoint	V2
	76	2	68	36	0	0	2	0.943	-5.21	138	2	1.02	0.93;	%	Darrah	V2
	77	2	61	28	0	0	2	1.006	-3.226	138	2	1.08	0.98;	%	Turner	V2
	78	1	71	26	0	0	2	1.01258	-3.735	138	2	1.07	0.99;	%	Chemical	V2
	79	1	39	32	0	20	2	1.01625	-3.86	138	2	1.07	0.99;	%	CapitlHl	V2
	80	2	130	26	0	0	2	1.04	-2.803	138	2	1.09	0.99;	%	CabinCrk	V2
	81	1	0	0	0	0	2	0.99518	-1.386	345	2	1.07	0.98;	%	Kanawha	V1
	82	2	54	27	0	20	3	1	-4.327	138	3	1.09	0.98;	%	Logan	V2
	83	1	20	10	0	10	3	0.99536	-4.25	138	3	1.07	0.99;	%	Sprigg	V2
	84	1	11	7	0	0	3	0.98687	-3.499	138	3	1.03	0.96;	%	BetsyLne	V2
	85	2	24	15	0	0	3	0.985	-2.81	138	3	1.02	0.96;	%	BeaverCk	V2
	86	1	21	10	0	0	3	0.9927	-0.458	138	3	0.96	0.93;	%	Hazard	V2
	87	2	0	0	0	0	3	1.015	5.694	161	3	1.09	0.98;	%	Pinevlle	V3
	88	1	48	10	0	0	3	0.99121	-3.477	138	3	1.06	0.98;	%	Fremont	V2
	89	2	0	0	0	0	3	1.005	-2.031	138	3	1.09	0.98;	%	ClinchRv	V2
	90	2	78	42	0	0	3	0.985	-5.733	138	3	1.09	0.98;	%	Holston	V2
	91	2	0	0	0	0	3	0.98	-5.934	138	3	1.09	0.98;	%	HolstonT	V2
	92	2	65	10	0	0	3	0.99	-2.84	138	3	1.09	0.98;	%	Saltvlle	V2
	93	1	12	7	0	0	3	0.99583	-3.729	138	3	1.08	0.98;	%	Tazewell	V2
	94	1	30	16	0	0	3	0.99686	-4.058	138	3	1.07	0.98;	%	Switchbk	V2
	95	1	42	31	0	0	3	0.98761	-4.74	138	3	1.05	0.98;	%	Caldwell	V2
	96	1	38	15	0	0	3	0.99965	-4.556	138	3	1.07	0.98;	%	Baileysv	V2
	97	1	15	9	0	0	2	1.01493	-4.031	138	2	1.08	0.98;	%	Sundial	V2
	98	1	34	8	0	0	2	1.02353	-3.955	138	2	1.08	0.98;	%	Bradley	V2
	99	2	0	0	0	0	2	1.01	-4.436	138	2	1.09	0.98;	%	Hinton	V2
	100	2	37	18	0	0	3	1.017	-2.644	138	3	1.09	0.98;	%	GlenLyn	V2
	101	1	22	15	0	0	3	0.99798	-3.587	138	3	1.08	0.98;	%	Wythe	V2
	102	1	5	3	0	0	3	1.00002	-3.191	138	3	1.09	0.98;	%	Smythe	V2
	103	2	23	16	0	0	3	1.01	-2.374	138	3	1.09	0.98;	%	Claytor	V2
	104	2	38	25	0	0	3	0.971	-2.091	138	3	1.08	0.99;	%	Hancock	V2
	105	2	31	26	0	20	3	0.99412	-1.861	138	3	1.08	0.98;	%	Roanoke	V2
	106	1	43	16	0	0	3	0.98175	-3.146	138	3	1.07	0.96;	%	Cloverdl	V2
	107	2	28	12	0	6	3	0.952	-3.487	138	3	1.06	0.94;	%	Reusens	V2
	108	1	2	1	0	0	3	0.98403	-0.773	138	3	1.08	0.98;	%	Blaine	V2
	109	1	8	3	0	0	3	0.98011	-0.288	138	3	1.08	0.98;	%	Franklin	V2
	110	2	39	30	0	6	3	0.97379	1.349	138	3	1.09	0.97;	%	Fieldale	V2
	111	2	0	0	0	0	3	0.98	3.736	138	3	1.09	0.97;	%	DanRiver	V2
	112	2	25	13	0	0	3	0.975	2.634	138	3	1.09	0.97;	%	Danville	V2
	113	2	0	0	0	0	1	0.993	-4.632	138	1	1.09	0.98;	%	DeerCrk	V2
	114	1	8.49	3.18	0	0	1	0.96343	-6.185	138	1	1.08	0.96;	%	WMedford	V2
	115	1	23.35	7.43	0	0	1	0.96296	-6.273	138	1	1.08	0.96;	%	Medford	V2
	116	2	0	0	0	0	2	1.005	-0.519	138	2	1.09	0.98;	%	KygerCrk	V2
	117	1	21.23	8.49	0	0	1	0.98241	-8.213	138	1	1.06	0.95;	%	Corey	V2
	118	1	33	15	0	0	2	0.95815	-5.778	138	2	1.03	0.93;	%	WHuntngd	V2
];

%% generator data
%	bus	Pg	Qg	Qmax	Qmin	Vg	mBase	status	Pmax	Pmin	Pc1	Pc2	Qc1min	Qc1max	Qc2min	Qc2max	ramp_agc	ramp_10	ramp_30	ramp_q	apf
mpc.gen = [
	4	0	0	300	-300	0.998	100	1	30	5	0	0	0	0	0	0	0	0	0	0	0	;	%	TG1
	6	0	0	50	-13	0.99	100	1	30	5	0	0	0	0	0	0	0	0	0	0	0	;	%	TG2
	8	0	0	300	-300	1.015	100	1	30	5	0	0	0	0	0	0	0	0	0	0	0	;	%	TG3
	10	0	0	200	-147	1.05	100	1	300	150	0	0	0	0	0	0	0	0	0	0	0	;	%	TG4
	12	0	0	120	-35	0.99	100	1	300	100	0	0	0	0	0	0	0	0	0	0	0	;	%	TG5
	15	0	0	30	-10	0.97	100	1	30	10	0	0	0	0	0	0	0	0	0	0	0	;	%	TG6
	18	0	0	50	-16	0.973	100	1	100	25	0	0	0	0	0	0	0	0	0	0	0	;	%	TG7
	19	0	0	24	-8	0.96522	100	1	30	5	0	0	0	0	0	0	0	0	0	0	0	;	%	TG8
	24	0	0	300	-300	0.992	100	1	30	5	0	0	0	0	0	0	0	0	0	0	0	;	%	TG9
	25	0	0	140	-47	1.05	100	1	300	100	0	0	0	0	0	0	0	0	0	0	0	;	%	TG10
	26	0	0	1000	-1000	1.015	100	1	350	100	0	0	0	0	0	0	0	0	0	0	0	;	%	TG11
	27	0	0	300	-300	0.968	100	1	30	8	0	0	0	0	0	0	0	0	0	0	0	;	%	TG12
	31	0	0	300	-300	0.967	100	1	30	8	0	0	0	0	0	0	0	0	0	0	0	;	%	TG13
	32	0	0	42	-14	0.96872	100	1	100	25	0	0	0	0	0	0	0	0	0	0	0	;	%	TG14
	34	0	0	24	-8	0.991	100	1	30	8	0	0	0	0	0	0	0	0	0	0	0	;	%	TG15
	36	0	0	24	-8	0.98693	100	1	100	25	0	0	0	0	0	0	0	0	0	0	0	;	%	TG16
	40	0	0	300	-300	0.97	100	1	30	8	0	0	0	0	0	0	0	0	0	0	0	;	%	TG17
	42	0	0	300	-300	0.985	100	1	30	8	0	0	0	0	0	0	0	0	0	0	0	;	%	TG18
	46	0	0	100	-100	1.005	100	1	100	25	0	0	0	0	0	0	0	0	0	0	0	;	%	TG19
	49	0	0	210	-85	1.025	100	1	250	50	0	0	0	0	0	0	0	0	0	0	0	;	%	TG20
	54	0	0	300	-300	0.955	100	1	250	50	0	0	0	0	0	0	0	0	0	0	0	;	%	TG21
	55	0	0	23	-8	0.95542	100	1	100	25	0	0	0	0	0	0	0	0	0	0	0	;	%	TG22
	56	0	0	15	-8	0.95671	100	1	100	25	0	0	0	0	0	0	0	0	0	0	0	;	%	TG23
	59	0	0	180	-60	0.985	100	1	200	50	0	0	0	0	0	0	0	0	0	0	0	;	%	TG24
	61	0	0	300	-100	0.995	100	1	200	50	0	0	0	0	0	0	0	0	0	0	0	;	%	TG25
	62	0	0	20	-20	0.998	100	1	100	25	0	0	0	0	0	0	0	0	0	0	0	;	%	TG26
	65	0	0	200	-67	1.005	100	1	420	100	0	0	0	0	0	0	0	0	0	0	0	;	%	TG27
	66	0	0	200	-67	1.05	100	1	420	100	0	0	0	0	0	0	0	0	0	0	0	;	%	TG28
	69	0	0	99999	-99999	1.035	100	1	300	80	0	0	0	0	0	0	0	0	0	0	0	;	%	TG29
	70	0	0	32	-10	0.98493	100	1	80	30	0	0	0	0	0	0	0	0	0	0	0	;	%	TG30
	72	0	0	100	-100	0.98	100	1	30	10	0	0	0	0	0	0	0	0	0	0	0	;	%	TG31
	73	0	0	100	-100	0.991	100	1	30	5	0	0	0	0	0	0	0	0	0	0	0	;	%	TG32
	74	0	0	9	-6	0.958	100	1	20	5	0	0	0	0	0	0	0	0	0	0	0	;	%	TG33
	76	0	0	23	-8	0.943	100	1	100	25	0	0	0	0	0	0	0	0	0	0	0	;	%	TG34
	77	0	0	70	-20	1.006	100	1	100	25	0	0	0	0	0	0	0	0	0	0	0	;	%	TG35
	80	0	0	280	-165	1.04	100	1	300	150	0	0	0	0	0	0	0	0	0	0	0	;	%	TG36
	82	0	0	9900	-9900	1	100	1	100	25	0	0	0	0	0	0	0	0	0	0	0	;	%	TG37
	85	0	0	23	-8	0.985	100	1	30	10	0	0	0	0	0	0	0	0	0	0	0	;	%	TG38
	87	0	0	1000	-100	1.015	100	1	300	100	0	0	0	0	0	0	0	0	0	0	0	;	%	TG39
	89	0	0	300	-210	1.005	100	1	200	50	0	0	0	0	0	0	0	0	0	0	0	;	%	TG40
	90	0	0	300	-300	0.985	100	1	20	8	0	0	0	0	0	0	0	0	0	0	0	;	%	TG41
	91	0	0	100	-100	0.98	100	1	50	20	0	0	0	0	0	0	0	0	0	0	0	;	%	TG42
	92	0	0	9	-3	0.99	100	1	300	100	0	0	0	0	0	0	0	0	0	0	0	;	%	TG43
	99	0	0	100	-100	1.01	100	1	300	100	0	0	0	0	0	0	0	0	0	0	0	;	%	TG44
	100	0	0	155	-50	1.017	100	1	300	100	0	0	0	0	0	0	0	0	0	0	0	;	%	TG45
	103	0	0	40	-15	1.01	100	1	20	8	0	0	0	0	0	0	0	0	0	0	0	;	%	TG46
	104	0	0	23	-8	0.971	100	1	100	25	0	0	0	0	0	0	0	0	0	0	0	;	%	TG47
	105	0	0	23	-8	0.99412	100	1	100	25	0	0	0	0	0	0	0	0	0	0	0	;	%	TG48
	107	0	0	200	-200	0.952	100	1	20	8	0	0	0	0	0	0	0	0	0	0	0	;	%	TG49
	110	0	0	23	-8	0.97379	100	1	50	25	0	0	0	0	0	0	0	0	0	0	0	;	%	TG50
	111	0	0	1000	-100	0.98	100	1	100	25	0	0	0	0	0	0	0	0	0	0	0	;	%	TG51
	112	0	0	1000	-100	0.975	100	1	100	25	0	0	0	0	0	0	0	0	0	0	0	;	%	TG52
	113	0	0	200	-100	0.993	100	1	100	25	0	0	0	0	0	0	0	0	0	0	0	;	%	TG53
	116	0	0	1000	-1000	1.005	100	1	50	25	0	0	0	0	0	0	0	0	0	0	0	;	%	TG54
];

%% branch data
%	fbus	tbus	r	x	b	rateA	rateB	rateC	ratio	angle	status	angmin	angmax
mpc.branch = [
    1	2	0.0303	0.0999	0.0254	175	175	175	0	0	1	-360	360	0	0	0	0	0	0	0	0	1125000	15.984
    1	3	0.0129	0.0424	0.01082	175	175	175	0	0	1	-360	360	0	0	0	0	0	0	0	0	1125000	6.784
    4	5	0.00176	0.00798	0.0021	500	500	500	0	0	1	-360	360	0	0	0	0	0	0	0	0	1406250	1.2768
    3	5	0.0241	0.108	0.0284	175	175	175	0	0	1	-360	360	0	0	0	0	0	0	0	0	937500	17.28
    5	6	0.0119	0.054	0.01426	175	175	175	0	0	1	-360	360	0	0	0	0	0	0	0	0	1125000	8.64
    6	7	0.00459	0.0208	0.0055	175	175	175	0	0	1	-360	360	0	0	0	0	0	0	0	0	1406250	3.328
    8	9	0.00244	0.0305	1.162	500	500	500	0	0	1	-360	360	0	0	0	0	0	0	0	0	1125000	4.88
    8	5	0	0.0267	0	500	500	500	0.985	0	1	-360	360	0	0	0	0	0	0	0	0	1406250	4.272
    9	10	0.00258	0.0322	1.23	500	500	500	0	0	1	-360	360	0	0	0	0	0	0	0	0	1125000	5.152
    4	11	0.0209	0.0688	0.01748	175	175	175	0	0	1	-360	360	0	0	0	0	0	0	0	0	1125000	11.008
    5	11	0.0203	0.0682	0.01738	175	175	175	0	0	1	-360	360	0	0	0	0	0	0	0	0	1125000	10.912
    11	12	0.00595	0.0196	0.00502	175	175	175	0	0	1	-360	360	0	0	0	0	0	0	0	0	1406250	3.136
    2	12	0.0187	0.0616	0.01572	175	175	175	0	0	1	-360	360	0	0	0	0	0	0	0	0	1125000	9.856
    3	12	0.0484	0.16	0.0406	175	175	175	0	0	1	-360	360	0	0	0	0	0	0	0	0	937500	25.6
    7	12	0.00862	0.034	0.00874	175	175	175	0	0	1	-360	360	0	0	0	0	0	0	0	0	1125000	5.44
    11	13	0.02225	0.0731	0.01876	175	175	175	0	0	1	-360	360	0	0	0	0	0	0	0	0	1125000	11.696
    12	14	0.0215	0.0707	0.01816	175	175	175	0	0	1	-360	360	0	0	0	0	0	0	0	0	1125000	11.312
    13	15	0.0744	0.2444	0.06268	175	175	175	0	0	1	-360	360	0	0	0	0	0	0	0	0	937500	39.104
    14	15	0.0595	0.195	0.0502	175	175	175	0	0	1	-360	360	0	0	0	0	0	0	0	0	937500	31.2
    12	16	0.0212	0.0834	0.0214	175	175	175	0	0	1	-360	360	0	0	0	0	0	0	0	0	1125000	13.344
    15	17	0.0132	0.0437	0.0444	500	500	500	0	0	1	-360	360	0	0	0	0	0	0	0	0	1125000	6.992
    16	17	0.0454	0.1801	0.0466	175	175	175	0	0	1	-360	360	0	0	0	0	0	0	0	0	937500	28.816
    17	18	0.0123	0.0505	0.01298	175	175	175	0	0	1	-360	360	0	0	0	0	0	0	0	0	1125000	8.08
    18	19	0.01119	0.0493	0.01142	175	175	175	0	0	1	-360	360	0	0	0	0	0	0	0	0	1125000	7.888
    19	20	0.0252	0.117	0.0298	175	175	175	0	0	1	-360	360	0	0	0	0	0	0	0	0	937500	18.72
    15	19	0.012	0.0394	0.0101	175	175	175	0	0	1	-360	360	0	0	0	0	0	0	0	0	1125000	6.304
    20	21	0.0183	0.0849	0.0216	175	175	175	0	0	1	-360	360	0	0	0	0	0	0	0	0	1125000	13.584
    21	22	0.0209	0.097	0.0246	175	175	175	0	0	1	-360	360	0	0	0	0	0	0	0	0	1125000	15.52
    22	23	0.0342	0.159	0.0404	175	175	175	0	0	1	-360	360	0	0	0	0	0	0	0	0	937500	25.44
    23	24	0.0135	0.0492	0.0498	175	175	175	0	0	1	-360	360	0	0	0	0	0	0	0	0	1125000	7.872
    23	25	0.0156	0.08	0.0864	500	500	500	0	0	1	-360	360	0	0	0	0	0	0	0	0	1125000	12.8
    26	25	0	0.0382	0	500	500	500	0.96	0	1	-360	360	0	0	0	0	0	0	0	0	1125000	6.112
    25	27	0.0318	0.163	0.1764	500	500	500	0	0	1	-360	360	0	0	0	0	0	0	0	0	937500	26.08
    27	28	0.01913	0.0855	0.0216	175	175	175	0	0	1	-360	360	0	0	0	0	0	0	0	0	1125000	13.68
    28	29	0.0237	0.0943	0.0238	175	175	175	0	0	1	-360	360	0	0	0	0	0	0	0	0	1125000	15.088
    30	17	0	0.0388	0	500	500	500	0.96	0	1	-360	360	0	0	0	0	0	0	0	0	1125000	6.208
    8	30	0.00431	0.0504	0.514	175	175	175	0	0	1	-360	360	0	0	0	0	0	0	0	0	1125000	8.064
    26	30	0.00799	0.086	0.908	500	500	500	0	0	1	-360	360	0	0	0	0	0	0	0	0	1125000	13.76
    17	31	0.0474	0.1563	0.0399	175	175	175	0	0	1	-360	360	0	0	0	0	0	0	0	0	937500	25.008
    29	31	0.0108	0.0331	0.0083	175	175	175	0	0	1	-360	360	0	0	0	0	0	0	0	0	1125000	5.296
    23	32	0.0317	0.1153	0.1173	140	140	140	0	0	1	-360	360	0	0	0	0	0	0	0	0	937500	18.448
    31	32	0.0298	0.0985	0.0251	175	175	175	0	0	1	-360	360	0	0	0	0	0	0	0	0	1125000	15.76
    27	32	0.0229	0.0755	0.01926	175	175	175	0	0	1	-360	360	0	0	0	0	0	0	0	0	1125000	12.08
    15	33	0.038	0.1244	0.03194	175	175	175	0	0	1	-360	360	0	0	0	0	0	0	0	0	937500	19.904
    19	34	0.0752	0.247	0.0632	175	175	175	0	0	1	-360	360	0	0	0	0	0	0	0	0	937500	39.52
    35	36	0.00224	0.0102	0.00268	175	175	175	0	0	1	-360	360	0	0	0	0	0	0	0	0	1406250	1.632
    35	37	0.011	0.0497	0.01318	175	175	175	0	0	1	-360	360	0	0	0	0	0	0	0	0	1125000	7.952
    33	37	0.0415	0.142	0.0366	175	175	175	0	0	1	-360	360	0	0	0	0	0	0	0	0	937500	22.72
    34	36	0.00871	0.0268	0.00568	175	175	175	0	0	1	-360	360	0	0	0	0	0	0	0	0	1406250	4.288
    34	37	0.00256	0.0094	0.00984	500	500	500	0	0	1	-360	360	0	0	0	0	0	0	0	0	1406250	1.504
    38	37	0	0.0375	0	500	500	500	0.935	0	1	-360	360	0	0	0	0	0	0	0	0	1125000	6
    37	39	0.0321	0.106	0.027	175	175	175	0	0	1	-360	360	0	0	0	0	0	0	0	0	937500	16.96
    37	40	0.0593	0.168	0.042	175	175	175	0	0	1	-360	360	0	0	0	0	0	0	0	0	937500	26.88
    30	38	0.00464	0.054	0.422	175	175	175	0	0	1	-360	360	0	0	0	0	0	0	0	0	1125000	8.64
    39	40	0.0184	0.0605	0.01552	175	175	175	0	0	1	-360	360	0	0	0	0	0	0	0	0	1125000	9.68
    40	41	0.0145	0.0487	0.01222	175	175	175	0	0	1	-360	360	0	0	0	0	0	0	0	0	1125000	7.792
    40	42	0.0555	0.183	0.0466	175	175	175	0	0	1	-360	360	0	0	0	0	0	0	0	0	937500	29.28
    41	42	0.041	0.135	0.0344	175	175	175	0	0	1	-360	360	0	0	0	0	0	0	0	0	937500	21.6
    43	44	0.0608	0.2454	0.06068	175	175	175	0	0	1	-360	360	0	0	0	0	0	0	0	0	937500	39.264
    34	43	0.0413	0.1681	0.04226	175	175	175	0	0	1	-360	360	0	0	0	0	0	0	0	0	937500	26.896
    44	45	0.0224	0.0901	0.0224	175	175	175	0	0	1	-360	360	0	0	0	0	0	0	0	0	1125000	14.416
    45	46	0.04	0.1356	0.0332	175	175	175	0	0	1	-360	360	0	0	0	0	0	0	0	0	937500	21.696
    46	47	0.038	0.127	0.0316	175	175	175	0	0	1	-360	360	0	0	0	0	0	0	0	0	937500	20.32
    46	48	0.0601	0.189	0.0472	175	175	175	0	0	1	-360	360	0	0	0	0	0	0	0	0	937500	30.24
    47	49	0.0191	0.0625	0.01604	175	175	175	0	0	1	-360	360	0	0	0	0	0	0	0	0	1125000	10
    42	49	0.0715	0.323	0.086	175	175	175	0	0	1	-360	360	0	0	0	0	0	0	0	0	937500	51.68
    42	49	0.0715	0.323	0.086	175	175	175	0	0	1	-360	360	0	0	0	0	0	0	0	0	937500	51.68
    45	49	0.0684	0.186	0.0444	175	175	175	0	0	1	-360	360	0	0	0	0	0	0	0	0	937500	29.76
    48	49	0.0179	0.0505	0.01258	175	175	175	0	0	1	-360	360	0	0	0	0	0	0	0	0	1125000	8.08
    49	50	0.0267	0.0752	0.01874	175	175	175	0	0	1	-360	360	0	0	0	0	0	0	0	0	1125000	12.032
    49	51	0.0486	0.137	0.0342	175	175	175	0	0	1	-360	360	0	0	0	0	0	0	0	0	937500	21.92
    51	52	0.0203	0.0588	0.01396	175	175	175	0	0	1	-360	360	0	0	0	0	0	0	0	0	1125000	9.408
    52	53	0.0405	0.1635	0.04058	175	175	175	0	0	1	-360	360	0	0	0	0	0	0	0	0	937500	26.16
    53	54	0.0263	0.122	0.031	175	175	175	0	0	1	-360	360	0	0	0	0	0	0	0	0	937500	19.52
    49	54	0.073	0.289	0.0738	175	175	175	0	0	1	-360	360	0	0	0	0	0	0	0	0	937500	46.24
    49	54	0.0869	0.291	0.073	175	175	175	0	0	1	-360	360	0	0	0	0	0	0	0	0	937500	46.56
    54	55	0.0169	0.0707	0.0202	175	175	175	0	0	1	-360	360	0	0	0	0	0	0	0	0	1125000	11.312
    54	56	0.00275	0.00955	0.00732	175	175	175	0	0	1	-360	360	0	0	0	0	0	0	0	0	1406250	1.528
    55	56	0.00488	0.0151	0.00374	175	175	175	0	0	1	-360	360	0	0	0	0	0	0	0	0	1406250	2.416
    56	57	0.0343	0.0966	0.0242	175	175	175	0	0	1	-360	360	0	0	0	0	0	0	0	0	1125000	15.456
    50	57	0.0474	0.134	0.0332	175	175	175	0	0	1	-360	360	0	0	0	0	0	0	0	0	937500	21.44
    56	58	0.0343	0.0966	0.0242	175	175	175	0	0	1	-360	360	0	0	0	0	0	0	0	0	1125000	15.456
    51	58	0.0255	0.0719	0.01788	175	175	175	0	0	1	-360	360	0	0	0	0	0	0	0	0	1125000	11.504
    54	59	0.0503	0.2293	0.0598	175	175	175	0	0	1	-360	360	0	0	0	0	0	0	0	0	937500	36.688
    56	59	0.0825	0.251	0.0569	175	175	175	0	0	1	-360	360	0	0	0	0	0	0	0	0	937500	40.16
    56	59	0.0803	0.239	0.0536	175	175	175	0	0	1	-360	360	0	0	0	0	0	0	0	0	937500	38.24
    55	59	0.04739	0.2158	0.05646	175	175	175	0	0	1	-360	360	0	0	0	0	0	0	0	0	937500	34.528
    59	60	0.0317	0.145	0.0376	175	175	175	0	0	1	-360	360	0	0	0	0	0	0	0	0	937500	23.2
    59	61	0.0328	0.15	0.0388	175	175	175	0	0	1	-360	360	0	0	0	0	0	0	0	0	937500	24
    60	61	0.00264	0.0135	0.01456	500	500	500	0	0	1	-360	360	0	0	0	0	0	0	0	0	1406250	2.16
    60	62	0.0123	0.0561	0.01468	175	175	175	0	0	1	-360	360	0	0	0	0	0	0	0	0	1125000	8.976
    61	62	0.00824	0.0376	0.0098	175	175	175	0	0	1	-360	360	0	0	0	0	0	0	0	0	1125000	6.016
    63	59	0	0.0386	0	500	500	500	0.96	0	1	-360	360	0	0	0	0	0	0	0	0	1125000	6.176
    63	64	0.00172	0.02	0.216	500	500	500	0	0	1	-360	360	0	0	0	0	0	0	0	0	1406250	3.2
    64	61	0	0.0268	0	500	500	500	0.985	0	1	-360	360	0	0	0	0	0	0	0	0	1406250	4.288
    38	65	0.00901	0.0986	1.046	500	500	500	0	0	1	-360	360	0	0	0	0	0	0	0	0	1125000	15.776
    64	65	0.00269	0.0302	0.38	500	500	500	0	0	1	-360	360	0	0	0	0	0	0	0	0	1125000	4.832
    49	66	0.018	0.0919	0.0248	500	500	500	0	0	1	-360	360	0	0	0	0	0	0	0	0	1125000	14.704
    49	66	0.018	0.0919	0.0248	500	500	500	0	0	1	-360	360	0	0	0	0	0	0	0	0	1125000	14.704
    62	66	0.0482	0.218	0.0578	175	175	175	0	0	1	-360	360	0	0	0	0	0	0	0	0	937500	34.88
    62	67	0.0258	0.117	0.031	175	175	175	0	0	1	-360	360	0	0	0	0	0	0	0	0	937500	18.72
    65	66	0	0.037	0	500	500	500	0.935	0	1	-360	360	0	0	0	0	0	0	0	0	1125000	5.92
    66	67	0.0224	0.1015	0.02682	175	175	175	0	0	1	-360	360	0	0	0	0	0	0	0	0	937500	16.24
    65	68	0.00138	0.016	0.638	500	500	500	0	0	1	-360	360	0	0	0	0	0	0	0	0	1406250	2.56
    47	69	0.0844	0.2778	0.07092	175	175	175	0	0	1	-360	360	0	0	0	0	0	0	0	0	937500	44.448
    49	69	0.0985	0.324	0.0828	175	175	175	0	0	1	-360	360	0	0	0	0	0	0	0	0	937500	51.84
    68	69	0	0.037	0	500	500	500	0.935	0	1	-360	360	0	0	0	0	0	0	0	0	1125000	5.92
    69	70	0.03	0.127	0.122	500	500	500	0	0	1	-360	360	0	0	0	0	0	0	0	0	937500	20.32
    24	70	0.00221	0.4115	0.10198	175	175	175	0	0	1	-360	360	0	0	0	0	0	0	0	0	937500	65.84
    70	71	0.00882	0.0355	0.00878	175	175	175	0	0	1	-360	360	0	0	0	0	0	0	0	0	1125000	5.68
    24	72	0.0488	0.196	0.0488	175	175	175	0	0	1	-360	360	0	0	0	0	0	0	0	0	937500	31.36
    71	72	0.0446	0.18	0.04444	175	175	175	0	0	1	-360	360	0	0	0	0	0	0	0	0	937500	28.8
    71	73	0.00866	0.0454	0.01178	175	175	175	0	0	1	-360	360	0	0	0	0	0	0	0	0	1125000	7.264
    70	74	0.0401	0.1323	0.03368	175	175	175	0	0	1	-360	360	0	0	0	0	0	0	0	0	937500	21.168
    70	75	0.0428	0.141	0.036	175	175	175	0	0	1	-360	360	0	0	0	0	0	0	0	0	937500	22.56
    69	75	0.0405	0.122	0.124	500	500	500	0	0	1	-360	360	0	0	0	0	0	0	0	0	937500	19.52
    74	75	0.0123	0.0406	0.01034	175	175	175	0	0	1	-360	360	0	0	0	0	0	0	0	0	1125000	6.496
    76	77	0.0444	0.148	0.0368	175	175	175	0	0	1	-360	360	0	0	0	0	0	0	0	0	937500	23.68
    69	77	0.0309	0.101	0.1038	175	175	175	0	0	1	-360	360	0	0	0	0	0	0	0	0	937500	16.16
    75	77	0.0601	0.1999	0.04978	175	175	175	0	0	1	-360	360	0	0	0	0	0	0	0	0	937500	31.984
    77	78	0.00376	0.0124	0.01264	175	175	175	0	0	1	-360	360	0	0	0	0	0	0	0	0	1406250	1.984
    78	79	0.00546	0.0244	0.00648	175	175	175	0	0	1	-360	360	0	0	0	0	0	0	0	0	1406250	3.904
    77	80	0.017	0.0485	0.0472	500	500	500	0	0	1	-360	360	0	0	0	0	0	0	0	0	1125000	7.76
    77	80	0.0294	0.105	0.0228	500	500	500	0	0	1	-360	360	0	0	0	0	0	0	0	0	937500	16.8
    79	80	0.0156	0.0704	0.0187	175	175	175	0	0	1	-360	360	0	0	0	0	0	0	0	0	1125000	11.264
    68	81	0.00175	0.0202	0.808	500	500	500	0	0	1	-360	360	0	0	0	0	0	0	0	0	1406250	3.232
    81	80	0	0.037	0	500	500	500	0.935	3.57	1	-360	360	0	0	0	0	0	0	0	0	1125000	5.92
    77	82	0.0298	0.0853	0.08174	200	200	200	0	0	1	-360	360	0	0	0	0	0	0	0	0	1125000	13.648
    82	83	0.0112	0.03665	0.03796	200	200	200	0	0	1	-360	360	0	0	0	0	0	0	0	0	1125000	5.864
    83	84	0.0625	0.132	0.0258	175	175	175	0	0	1	-360	360	0	0	0	0	0	0	0	0	937500	21.12
    83	85	0.043	0.148	0.0348	175	175	175	0	0	1	-360	360	0	0	0	0	0	0	0	0	937500	23.68
    84	85	0.0302	0.0641	0.01234	175	175	175	0	0	1	-360	360	0	0	0	0	0	0	0	0	1125000	10.256
    85	86	0.035	0.123	0.0276	500	500	500	0	0	1	-360	360	0	0	0	0	0	0	0	0	937500	19.68
    86	87	0.02828	0.2074	0.0445	500	500	500	0	0	1	-360	360	0	0	0	0	0	0	0	0	937500	33.184
    85	88	0.02	0.102	0.0276	175	175	175	0	0	1	-360	360	0	0	0	0	0	0	0	0	937500	16.32
    85	89	0.0239	0.173	0.047	175	175	175	0	0	1	-360	360	0	0	0	0	0	0	0	0	937500	27.68
    88	89	0.0139	0.0712	0.01934	500	500	500	0	0	1	-360	360	0	0	0	0	0	0	0	0	1125000	11.392
    89	90	0.0518	0.188	0.0528	500	500	500	0	0	1	-360	360	0	0	0	0	0	0	0	0	937500	30.08
    89	90	0.0238	0.0997	0.106	500	500	500	0	0	1	-360	360	0	0	0	0	0	0	0	0	1125000	15.952
    90	91	0.0254	0.0836	0.0214	175	175	175	0	0	1	-360	360	0	0	0	0	0	0	0	0	1125000	13.376
    89	92	0.0099	0.0505	0.0548	500	500	500	0	0	1	-360	360	0	0	0	0	0	0	0	0	1125000	8.08
    89	92	0.0393	0.1581	0.0414	500	500	500	0	0	1	-360	360	0	0	0	0	0	0	0	0	937500	25.296
    91	92	0.0387	0.1272	0.03268	175	175	175	0	0	1	-360	360	0	0	0	0	0	0	0	0	937500	20.352
    92	93	0.0258	0.0848	0.0218	175	175	175	0	0	1	-360	360	0	0	0	0	0	0	0	0	1125000	13.568
    92	94	0.0481	0.158	0.0406	175	175	175	0	0	1	-360	360	0	0	0	0	0	0	0	0	937500	25.28
    93	94	0.0223	0.0732	0.01876	175	175	175	0	0	1	-360	360	0	0	0	0	0	0	0	0	1125000	11.712
    94	95	0.0132	0.0434	0.0111	175	175	175	0	0	1	-360	360	0	0	0	0	0	0	0	0	1125000	6.944
    80	96	0.0356	0.182	0.0494	175	175	175	0	0	1	-360	360	0	0	0	0	0	0	0	0	937500	29.12
    82	96	0.0162	0.053	0.0544	175	175	175	0	0	1	-360	360	0	0	0	0	0	0	0	0	1125000	8.48
    94	96	0.0269	0.0869	0.023	175	175	175	0	0	1	-360	360	0	0	0	0	0	0	0	0	1125000	13.904
    80	97	0.0183	0.0934	0.0254	175	175	175	0	0	1	-360	360	0	0	0	0	0	0	0	0	1125000	14.944
    80	98	0.0238	0.108	0.0286	175	175	175	0	0	1	-360	360	0	0	0	0	0	0	0	0	937500	17.28
    80	99	0.0454	0.206	0.0546	200	200	200	0	0	1	-360	360	0	0	0	0	0	0	0	0	937500	32.96
    92	100	0.0648	0.295	0.0472	175	175	175	0	0	1	-360	360	0	0	0	0	0	0	0	0	937500	47.2
    94	100	0.0178	0.058	0.0604	175	175	175	0	0	1	-360	360	0	0	0	0	0	0	0	0	1125000	9.28
    95	96	0.0171	0.0547	0.01474	175	175	175	0	0	1	-360	360	0	0	0	0	0	0	0	0	1125000	8.752
    96	97	0.0173	0.0885	0.024	175	175	175	0	0	1	-360	360	0	0	0	0	0	0	0	0	1125000	14.16
    98	100	0.0397	0.179	0.0476	175	175	175	0	0	1	-360	360	0	0	0	0	0	0	0	0	937500	28.64
    99	100	0.018	0.0813	0.0216	175	175	175	0	0	1	-360	360	0	0	0	0	0	0	0	0	1125000	13.008
    100	101	0.0277	0.1262	0.0328	175	175	175	0	0	1	-360	360	0	0	0	0	0	0	0	0	937500	20.192
    92	102	0.0123	0.0559	0.01464	175	175	175	0	0	1	-360	360	0	0	0	0	0	0	0	0	1125000	8.944
    101	102	0.0246	0.112	0.0294	175	175	175	0	0	1	-360	360	0	0	0	0	0	0	0	0	937500	17.92
    100	103	0.016	0.0525	0.0536	500	500	500	0	0	1	-360	360	0	0	0	0	0	0	0	0	1125000	8.4
    100	104	0.0451	0.204	0.0541	175	175	175	0	0	1	-360	360	0	0	0	0	0	0	0	0	937500	32.64
    103	104	0.0466	0.1584	0.0407	175	175	175	0	0	1	-360	360	0	0	0	0	0	0	0	0	937500	25.344
    103	105	0.0535	0.1625	0.0408	175	175	175	0	0	1	-360	360	0	0	0	0	0	0	0	0	937500	26
    100	106	0.0605	0.229	0.062	175	175	175	0	0	1	-360	360	0	0	0	0	0	0	0	0	937500	36.64
    104	105	0.00994	0.0378	0.00986	175	175	175	0	0	1	-360	360	0	0	0	0	0	0	0	0	1125000	6.048
    105	106	0.014	0.0547	0.01434	175	175	175	0	0	1	-360	360	0	0	0	0	0	0	0	0	1125000	8.752
    105	107	0.053	0.183	0.0472	175	175	175	0	0	1	-360	360	0	0	0	0	0	0	0	0	937500	29.28
    105	108	0.0261	0.0703	0.01844	175	175	175	0	0	1	-360	360	0	0	0	0	0	0	0	0	1125000	11.248
    106	107	0.053	0.183	0.0472	175	175	175	0	0	1	-360	360	0	0	0	0	0	0	0	0	937500	29.28
    108	109	0.0105	0.0288	0.0076	175	175	175	0	0	1	-360	360	0	0	0	0	0	0	0	0	1406250	4.608
    103	110	0.03906	0.1813	0.0461	175	175	175	0	0	1	-360	360	0	0	0	0	0	0	0	0	937500	29.008
    109	110	0.0278	0.0762	0.0202	175	175	175	0	0	1	-360	360	0	0	0	0	0	0	0	0	1125000	12.192
    110	111	0.022	0.0755	0.02	175	175	175	0	0	1	-360	360	0	0	0	0	0	0	0	0	1125000	12.08
    110	112	0.0247	0.064	0.062	175	175	175	0	0	1	-360	360	0	0	0	0	0	0	0	0	1125000	10.24
    17	113	0.00913	0.0301	0.00768	175	175	175	0	0	1	-360	360	0	0	0	0	0	0	0	0	1125000	4.816
    32	113	0.0615	0.203	0.0518	500	500	500	0	0	1	-360	360	0	0	0	0	0	0	0	0	937500	32.48
    32	114	0.0135	0.0612	0.01628	175	175	175	0	0	1	-360	360	0	0	0	0	0	0	0	0	1125000	9.792
    27	115	0.0164	0.0741	0.01972	175	175	175	0	0	1	-360	360	0	0	0	0	0	0	0	0	1125000	11.856
    114	115	0.0023	0.0104	0.00276	175	175	175	0	0	1	-360	360	0	0	0	0	0	0	0	0	1406250	1.664
    68	116	0.00034	0.00405	0.164	500	500	500	0	0	1	-360	360	0	0	0	0	0	0	0	0	1406250	0.648
    12	117	0.0329	0.14	0.0358	175	175	175	0	0	1	-360	360	0	0	0	0	0	0	0	0	937500	22.4
    75	118	0.0145	0.0481	0.01198	175	175	175	0	0	1	-360	360	0	0	0	0	0	0	0	0	1125000	7.696
    76	118	0.0164	0.0544	0.01356	175	175	175	0	0	1	-360	360	0	0	0	0	0	0	0	0	1125000	8.704
];

%%-----  OPF Data  -----%%
%% generator cost data
%	1	startup	shutdown	n	x1	y1	...	xn	yn
%	2	startup	shutdown	n	c(n-1)	...	c0
mpc.gencost = [
	2	40	0	3	0.069663	26.2438	31.67	;		%	4		TG1
	2	40	0	3	0.069663	26.2438	31.67	;		%	6		TG2
	2	40	0	3	0.069663	26.2438	31.67	;		%	8		TG3
	2	440	0	3	0.010875	12.8875	6.78	;		%	10		TG4
	2	110	0	3	0.010875	12.8875	6.78	;		%	12		TG5
	2	40	0	3	0.069663	26.2438	31.67	;		%	15		TG6
	2	50	0	3	0.0128	17.82	10.15	;		%	18		TG7
	2	40	0	3	0.069663	26.2438	31.67	;		%	19		TG8
	2	40	0	3	0.069663	26.2438	31.67	;		%	24		TG9
	2	100	0	3	0.010875	12.8875	6.78	;		%	25		TG10
	2	100	0	3	0.003	10.76	32.96	;		%	26		TG11
	2	40	0	3	0.069663	26.2438	31.67	;		%	27		TG12
	2	40	0	3	0.069663	26.2438	31.67	;		%	31		TG13
	2	50	0	3	0.0128	17.82	10.15	;		%	32		TG14
	2	40	0	3	0.069663	26.2438	31.67	;		%	34		TG15
	2	50	0	3	0.0128	17.82	10.15	;		%	36		TG16
	2	40	0	3	0.069663	26.2438	31.67	;		%	40		TG17
	2	40	0	3	0.069663	26.2438	31.67	;		%	42		TG18
	2	59	0	3	0.0128	17.82	10.15	;		%	46		TG19
	2	100	0	3	0.002401	12.3299	28	;		%	49		TG20
	2	100	0	3	0.002401	12.3299	28	;		%	54		TG21
	2	50	0	3	0.0128	17.82	10.15	;		%	55		TG22
	2	50	0	3	0.0128	17.82	10.15	;		%	56		TG23
	2	100	0	3	0.0044	13.29	39	;		%	59		TG24
	2	100	0	3	0.0044	13.29	39	;		%	61		TG25
	2	50	0	3	0.0128	17.82	10.15	;		%	62		TG26
	2	250	0	3	0.01059	8.3391	64.16	;		%	65		TG27
	2	250	0	3	0.01059	8.3391	64.16	;		%	66		TG28
	2	100	0	3	0.010875	12.8875	6.78	;		%	69		TG29
	2	45	0	3	0.045923	15.4708	74.33	;		%	70		TG30
	2	40	0	3	0.069663	26.2438	31.67	;		%	72		TG31
	2	40	0	3	0.069663	26.2438	31.67	;		%	73		TG32
	2	30	0	3	0.028302	37.6968	17.95	;		%	74		TG33
	2	50	0	3	0.0128	17.82	10.15	;		%	76		TG34
	2	50	0	3	0.0128	17.82	10.15	;		%	77		TG35
	2	440	0	3	0.010875	12.8875	6.78	;		%	80		TG36
	2	50	0	3	0.0128	17.82	10.15	;		%	82		TG37
	2	40	0	3	0.069663	26.2438	31.67	;		%	85		TG38
	2	440	0	3	0.003	10.76	32.96	;		%	87		TG39
	2	400	0	3	0.010875	12.8875	6.78	;		%	89		TG40
	2	30	0	3	0.028302	37.6968	17.95	;		%	90		TG41
	2	45	0	3	0.009774	22.9423	58.81	;		%	91		TG42
	2	100	0	3	0.010875	12.8875	6.78	;		%	92		TG43
	2	100	0	3	0.010875	12.8875	6.78	;		%	99		TG44
	2	110	0	3	0.010875	12.8875	6.78	;		%	100		TG45
	2	30	0	3	0.028302	37.6968	17.95	;		%	103		TG46
	2	50	0	3	0.0128	17.82	10.15	;		%	104		TG47
	2	50	0	3	0.0128	17.82	10.15	;		%	105		TG48
	2	30	0	3	0.028302	37.6968	17.95	;		%	107		TG49
	2	45	0	3	0.009774	22.9423	58.81	;		%	110		TG50
	2	50	0	3	0.0128	17.82	10.15	;		%	111		TG51
	2	50	0	3	0.0128	17.82	10.15	;		%	112		TG52
	2	50	0	3	0.0128	17.82	10.15	;		%	113		TG53
	2	45	0	3	0.009774	22.9423	58.81	;		%	116		TG54
];


%% Generator type
%   Type        SubType
mpc.genType = {
    'Conv'     'Hard Coal';
    'Conv'     'Hard Coal';
    'Conv'     'Hard Coal';
    'Conv'     'Hard Coal';
    'Conv'     'Hard Coal';
    'Conv'     'Hard Coal';
    'Conv'     'Hard Coal';
    'Conv'     'Lignite';
    'Conv'     'Lignite';
    'Conv'     'Hard Coal';
    'Conv'     'Hard Coal';
    'Conv'     'Hard Coal';
    'Conv'     'Hard Coal';
    'Conv'     'Hard Coal';
    'Conv'     'Hard Coal';
    'Conv'     'Lignite';
    'Conv'     'Hard Coal';
    'Conv'     'Hard Coal';
    'Conv'     'Lignite';
    'Conv'     'Hard Coal';
    'Conv'     'Hard Coal';
    'Conv'     'Hard Coal';
    'Conv'     'Nuclear';
    'Conv'     'Hard Coal';
    'Conv'     'Hard Coal';
    'Conv'     'Nuclear';
    'Conv'     'Nuclear';
    'Conv'     'Hard Coal';
    'Conv'     'Lignite';
    'Conv'     'Hard Coal';
    'Conv'     'Hard Coal';
    'Conv'     'Hard Coal';
    'Conv'     'Lignite';
    'Conv'     'Lignite';
    'Conv'     'Hard Coal';
    'Conv'     'Lignite';
    'Conv'     'Hard Coal';
    'Conv'     'Hard Coal';
    'Conv'     'Hard Coal';
    'Conv'     'Hard Coal';
    'Conv'     'Hard Coal';
    'Conv'     'Hard Coal';
    'Conv'     'Hard Coal';
    'Conv'     'Hard Coal';
    'Conv'     'Hard Coal';
    'Conv'     'Lignite';
    'Conv'     'Hard Coal';
    'Conv'     'Hard Coal';
    'Conv'     'Hard Coal';
    'Conv'     'Hard Coal';
    'Conv'     'Nuclear';
    'Conv'     'Hard Coal';
    'Conv'     'Hard Coal';
    'Conv'     'Nuclear';
};

%% bus names
mpc.busName = {
	'Riversde  V2';
	'Pokagon   V2';
	'HickryCk  V2';
	'NwCarlsl  V2';
	'Olive     V2';
	'Kankakee  V2';
	'JacksnRd  V2';
	'Olive     V1';
	'Bequine   V1';
	'Breed     V1';
	'SouthBnd  V2';
	'TwinBrch  V2';
	'Concord   V2';
	'GoshenJt  V2';
	'FtWayne   V2';
	'N. E.     V2';
	'Sorenson  V2';
	'McKinley  V2';
	'Lincoln   V2';
	'Adams     V2';
	'Jay       V2';
	'Randolph  V2';
	'CollCrnr  V2';
	'Trenton   V2';
	'TannrsCk  V2';
	'TannrsCk  V1';
	'Madison   V2';
	'Mullin    V2';
	'Grant     V2';
	'Sorenson  V1';
	'DeerCrk   V2';
	'Delaware  V2';
	'Haviland  V2';
	'Rockhill  V2';
	'WestLima  V2';
	'Sterling  V2';
	'EastLima  V2';
	'EastLima  V1';
	'NwLibrty  V2';
	'West End  V2';
	'S.Tiffin  V2';
	'Howard    V2';
	'S.Kenton  V2';
	'WMVernon  V2';
	'N.Newark  V2';
	'W.Lancst  V2';
	'Crooksvl  V2';
	'Zanesvll  V2';
	'Philo     V2';
	'WCambrdg  V2';
	'Newcmrst  V2';
	'SCoshoct  V2';
	'Wooster   V2';
	'Torrey    V2';
	'Wagenhls  V2';
	'Sunnysde  V2';
	'WNwPhil1  V2';
	'WNwPhil2  V2';
	'Tidd      V2';
	'SWKammer  V2';
	'W.Kammer  V2';
	'Natrium   V2';
	'Tidd      V1';
	'Kammer    V1';
	'Muskngum  V1';
	'Muskngum  V2';
	'Summerfl  V2';
	'Sporn     V1';
	'Sporn     V2';
	'Portsmth  V2';
	'NPortsmt  V2';
	'Hillsbro  V2';
	'Sargents  V2';
	'Bellefnt  V2';
	'SthPoint  V2';
	'Darrah    V2';
	'Turner    V2';
	'Chemical  V2';
	'CapitlHl  V2';
	'CabinCrk  V2';
	'Kanawha   V1';
	'Logan     V2';
	'Sprigg    V2';
	'BetsyLne  V2';
	'BeaverCk  V2';
	'Hazard    V2';
	'Pinevlle  V3';
	'Fremont   V2';
	'ClinchRv  V2';
	'Holston   V2';
	'HolstonT  V2';
	'Saltvlle  V2';
	'Tazewell  V2';
	'Switchbk  V2';
	'Caldwell  V2';
	'Baileysv  V2';
	'Sundial   V2';
	'Bradley   V2';
	'Hinton    V2';
	'Glen Lyn  V2';
	'Wythe     V2';
	'Smythe    V2';
	'Claytor   V2';
	'Hancock   V2';
	'Roanoke   V2';
	'Cloverdl  V2';
	'Reusens   V2';
	'Blaine    V2';
	'Franklin  V2';
	'Fieldale  V2';
	'DanRiver  V2';
	'Danville  V2';
	'Deer Crk  V2';
	'WMedford  V2';
	'Medford   V2';
	'KygerCrk  V2';
	'Corey     V2';
	'WHuntngd  V2';
};

%% potential branches
%	fbus	tbus	r	x	b	rateA	rateB	rateC	ratio	angle   status	 angmin   angmax   cost/km   length
mpc.branchPot = [
    3	5	0.03515	0.11538	0.01504	120	120	120	0	0	0	-360	360	0	0	0	0	0	0	0	0	8730000	1
    8	5	0	0.06675	0	200	200	200	0.985	0	0	-360	360	0	0	0	0	0	0	0	0	8170000	1
    8	9	0.0061	0.03086	0.04971	200	200	200	0	0	0	-360	360	0	0	0	0	0	0	0	0	16430000	1
    30	17	0	0.097	0	200	200	200	0.96	0	0	-360	360	0	0	0	0	0	0	0	0	21220000	1
    8	30	0.00629	0.05095	0.07897	120	120	120	0	0	0	-360	360	0	0	0	0	0	0	0	0	8670000	1
    26	30	0.01998	0.08702	0.12609	200	200	200	0	0	0	-360	360	0	0	0	0	0	0	0	0	11220000	1
    55	56	0.00712	0.01613	0.00204	120	120	120	0	0	0	-360	360	0	0	0	0	0	0	0	0	14660000	1
    38	65	0.02253	0.09977	0.14466	200	200	200	0	0	0	-360	360	0	0	0	0	0	0	0	0	13740000	1
    77	78	0.00548	0.01325	0.00285	120	120	120	0	0	0	-360	360	0	0	0	0	0	0	0	0	8970000	1
    83	85	0.06271	0.15811	0.0194	120	120	120	0	0	0	-360	360	0	0	0	0	0	0	0	0	10650000	1
    85	86	0.0875	0.13214	0.01513	200	200	200	0	0	0	-360	360	0	0	0	0	0	0	0	0	22770000	1
    65	68	0.00345	0.01619	0.02613	200	200	200	0	0	0	-360	360	0	0	0	0	0	0	0	0	18410000	1
    38	37	0	0.09375	0	200	200	200	0.935	0	0	-360	360	0	0	0	0	0	0	0	0	19240000	1
    103	110	0.05696	0.19369	0.0248	120	120	120	0	0	0	-360	360	0	0	0	0	0	0	0	0	15700000	1
    110	112	0.03602	0.06837	0.01452	120	120	120	0	0	0	-360	360	0	0	0	0	0	0	0	0	18710000	1
    17	113	0.01331	0.03216	0.00413	120	120	120	0	0	0	-360	360	0	0	0	0	0	0	0	0	17540000	1
    12	117	0.04798	0.14957	0.01921	120	120	120	0	0	0	-360	360	0	0	0	0	0	0	0	0	3180000	1
];

%% Warnings from cdf2matp conversion:
%
% ***** check the title format in the first line of the cdf file.
% ***** negative Pg at bus 4 treated as Pd
% ***** negative Pg at bus 8 treated as Pd
% ***** negative Pg at bus 24 treated as Pd
% ***** negative Pg at bus 27 treated as Pd
% ***** negative Pg at bus 40 treated as Pd
% ***** negative Pg at bus 42 treated as Pd
% ***** negative Pg at bus 72 treated as Pd
% ***** negative Pg at bus 73 treated as Pd
% ***** negative Pg at bus 90 treated as Pd
% ***** negative Pg at bus 91 treated as Pd
% ***** negative Pg at bus 99 treated as Pd
% ***** negative Pg at bus 107 treated as Pd
% ***** negative Pg at bus 112 treated as Pd
% ***** negative Pg at bus 113 treated as Pd
% ***** negative Pg at bus 116 treated as Pd
% ***** Insufficient generation, setting Pmax at slack bus (bus 69) to 805.2
% ***** MVA limit of branch 1 - 2 not given, set to 0
% ***** MVA limit of branch 1 - 3 not given, set to 0
% ***** MVA limit of branch 4 - 5 not given, set to 0
% ***** MVA limit of branch 3 - 5 not given, set to 0
% ***** MVA limit of branch 5 - 6 not given, set to 0
% ***** MVA limit of branch 6 - 7 not given, set to 0
% ***** MVA limit of branch 8 - 9 not given, set to 0
% ***** MVA limit of branch 8 - 5 not given, set to 0
% ***** MVA limit of branch 9 - 10 not given, set to 0
% ***** MVA limit of branch 4 - 11 not given, set to 0
% ***** MVA limit of branch 5 - 11 not given, set to 0
% ***** MVA limit of branch 11 - 12 not given, set to 0
% ***** MVA limit of branch 2 - 12 not given, set to 0
% ***** MVA limit of branch 3 - 12 not given, set to 0
% ***** MVA limit of branch 7 - 12 not given, set to 0
% ***** MVA limit of branch 11 - 13 not given, set to 0
% ***** MVA limit of branch 12 - 14 not given, set to 0
% ***** MVA limit of branch 13 - 15 not given, set to 0
% ***** MVA limit of branch 14 - 15 not given, set to 0
% ***** MVA limit of branch 12 - 16 not given, set to 0
% ***** MVA limit of branch 15 - 17 not given, set to 0
% ***** MVA limit of branch 16 - 17 not given, set to 0
% ***** MVA limit of branch 17 - 18 not given, set to 0
% ***** MVA limit of branch 18 - 19 not given, set to 0
% ***** MVA limit of branch 19 - 20 not given, set to 0
% ***** MVA limit of branch 15 - 19 not given, set to 0
% ***** MVA limit of branch 20 - 21 not given, set to 0
% ***** MVA limit of branch 21 - 22 not given, set to 0
% ***** MVA limit of branch 22 - 23 not given, set to 0
% ***** MVA limit of branch 23 - 24 not given, set to 0
% ***** MVA limit of branch 23 - 25 not given, set to 0
% ***** MVA limit of branch 26 - 25 not given, set to 0
% ***** MVA limit of branch 25 - 27 not given, set to 0
% ***** MVA limit of branch 27 - 28 not given, set to 0
% ***** MVA limit of branch 28 - 29 not given, set to 0
% ***** MVA limit of branch 30 - 17 not given, set to 0
% ***** MVA limit of branch 8 - 30 not given, set to 0
% ***** MVA limit of branch 26 - 30 not given, set to 0
% ***** MVA limit of branch 17 - 31 not given, set to 0
% ***** MVA limit of branch 29 - 31 not given, set to 0
% ***** MVA limit of branch 23 - 32 not given, set to 0
% ***** MVA limit of branch 31 - 32 not given, set to 0
% ***** MVA limit of branch 27 - 32 not given, set to 0
% ***** MVA limit of branch 15 - 33 not given, set to 0
% ***** MVA limit of branch 19 - 34 not given, set to 0
% ***** MVA limit of branch 35 - 36 not given, set to 0
% ***** MVA limit of branch 35 - 37 not given, set to 0
% ***** MVA limit of branch 33 - 37 not given, set to 0
% ***** MVA limit of branch 34 - 36 not given, set to 0
% ***** MVA limit of branch 34 - 37 not given, set to 0
% ***** MVA limit of branch 38 - 37 not given, set to 0
% ***** MVA limit of branch 37 - 39 not given, set to 0
% ***** MVA limit of branch 37 - 40 not given, set to 0
% ***** MVA limit of branch 30 - 38 not given, set to 0
% ***** MVA limit of branch 39 - 40 not given, set to 0
% ***** MVA limit of branch 40 - 41 not given, set to 0
% ***** MVA limit of branch 40 - 42 not given, set to 0
% ***** MVA limit of branch 41 - 42 not given, set to 0
% ***** MVA limit of branch 43 - 44 not given, set to 0
% ***** MVA limit of branch 34 - 43 not given, set to 0
% ***** MVA limit of branch 44 - 45 not given, set to 0
% ***** MVA limit of branch 45 - 46 not given, set to 0
% ***** MVA limit of branch 46 - 47 not given, set to 0
% ***** MVA limit of branch 46 - 48 not given, set to 0
% ***** MVA limit of branch 47 - 49 not given, set to 0
% ***** MVA limit of branch 42 - 49 not given, set to 0
% ***** MVA limit of branch 42 - 49 not given, set to 0
% ***** MVA limit of branch 45 - 49 not given, set to 0
% ***** MVA limit of branch 48 - 49 not given, set to 0
% ***** MVA limit of branch 49 - 50 not given, set to 0
% ***** MVA limit of branch 49 - 51 not given, set to 0
% ***** MVA limit of branch 51 - 52 not given, set to 0
% ***** MVA limit of branch 52 - 53 not given, set to 0
% ***** MVA limit of branch 53 - 54 not given, set to 0
% ***** MVA limit of branch 49 - 54 not given, set to 0
% ***** MVA limit of branch 49 - 54 not given, set to 0
% ***** MVA limit of branch 54 - 55 not given, set to 0
% ***** MVA limit of branch 54 - 56 not given, set to 0
% ***** MVA limit of branch 55 - 56 not given, set to 0
% ***** MVA limit of branch 56 - 57 not given, set to 0
% ***** MVA limit of branch 50 - 57 not given, set to 0
% ***** MVA limit of branch 56 - 58 not given, set to 0
% ***** MVA limit of branch 51 - 58 not given, set to 0
% ***** MVA limit of branch 54 - 59 not given, set to 0
% ***** MVA limit of branch 56 - 59 not given, set to 0
% ***** MVA limit of branch 56 - 59 not given, set to 0
% ***** MVA limit of branch 55 - 59 not given, set to 0
% ***** MVA limit of branch 59 - 60 not given, set to 0
% ***** MVA limit of branch 59 - 61 not given, set to 0
% ***** MVA limit of branch 60 - 61 not given, set to 0
% ***** MVA limit of branch 60 - 62 not given, set to 0
% ***** MVA limit of branch 61 - 62 not given, set to 0
% ***** MVA limit of branch 63 - 59 not given, set to 0
% ***** MVA limit of branch 63 - 64 not given, set to 0
% ***** MVA limit of branch 64 - 61 not given, set to 0
% ***** MVA limit of branch 38 - 65 not given, set to 0
% ***** MVA limit of branch 64 - 65 not given, set to 0
% ***** MVA limit of branch 49 - 66 not given, set to 0
% ***** MVA limit of branch 49 - 66 not given, set to 0
% ***** MVA limit of branch 62 - 66 not given, set to 0
% ***** MVA limit of branch 62 - 67 not given, set to 0
% ***** MVA limit of branch 65 - 66 not given, set to 0
% ***** MVA limit of branch 66 - 67 not given, set to 0
% ***** MVA limit of branch 65 - 68 not given, set to 0
% ***** MVA limit of branch 47 - 69 not given, set to 0
% ***** MVA limit of branch 49 - 69 not given, set to 0
% ***** MVA limit of branch 68 - 69 not given, set to 0
% ***** MVA limit of branch 69 - 70 not given, set to 0
% ***** MVA limit of branch 24 - 70 not given, set to 0
% ***** MVA limit of branch 70 - 71 not given, set to 0
% ***** MVA limit of branch 24 - 72 not given, set to 0
% ***** MVA limit of branch 71 - 72 not given, set to 0
% ***** MVA limit of branch 71 - 73 not given, set to 0
% ***** MVA limit of branch 70 - 74 not given, set to 0
% ***** MVA limit of branch 70 - 75 not given, set to 0
% ***** MVA limit of branch 69 - 75 not given, set to 0
% ***** MVA limit of branch 74 - 75 not given, set to 0
% ***** MVA limit of branch 76 - 77 not given, set to 0
% ***** MVA limit of branch 69 - 77 not given, set to 0
% ***** MVA limit of branch 75 - 77 not given, set to 0
% ***** MVA limit of branch 77 - 78 not given, set to 0
% ***** MVA limit of branch 78 - 79 not given, set to 0
% ***** MVA limit of branch 77 - 80 not given, set to 0
% ***** MVA limit of branch 77 - 80 not given, set to 0
% ***** MVA limit of branch 79 - 80 not given, set to 0
% ***** MVA limit of branch 68 - 81 not given, set to 0
% ***** MVA limit of branch 81 - 80 not given, set to 0
% ***** MVA limit of branch 77 - 82 not given, set to 0
% ***** MVA limit of branch 82 - 83 not given, set to 0
% ***** MVA limit of branch 83 - 84 not given, set to 0
% ***** MVA limit of branch 83 - 85 not given, set to 0
% ***** MVA limit of branch 84 - 85 not given, set to 0
% ***** MVA limit of branch 85 - 86 not given, set to 0
% ***** MVA limit of branch 86 - 87 not given, set to 0
% ***** MVA limit of branch 85 - 88 not given, set to 0
% ***** MVA limit of branch 85 - 89 not given, set to 0
% ***** MVA limit of branch 88 - 89 not given, set to 0
% ***** MVA limit of branch 89 - 90 not given, set to 0
% ***** MVA limit of branch 89 - 90 not given, set to 0
% ***** MVA limit of branch 90 - 91 not given, set to 0
% ***** MVA limit of branch 89 - 92 not given, set to 0
% ***** MVA limit of branch 89 - 92 not given, set to 0
% ***** MVA limit of branch 91 - 92 not given, set to 0
% ***** MVA limit of branch 92 - 93 not given, set to 0
% ***** MVA limit of branch 92 - 94 not given, set to 0
% ***** MVA limit of branch 93 - 94 not given, set to 0
% ***** MVA limit of branch 94 - 95 not given, set to 0
% ***** MVA limit of branch 80 - 96 not given, set to 0
% ***** MVA limit of branch 82 - 96 not given, set to 0
% ***** MVA limit of branch 94 - 96 not given, set to 0
% ***** MVA limit of branch 80 - 97 not given, set to 0
% ***** MVA limit of branch 80 - 98 not given, set to 0
% ***** MVA limit of branch 80 - 99 not given, set to 0
% ***** MVA limit of branch 92 - 100 not given, set to 0
% ***** MVA limit of branch 94 - 100 not given, set to 0
% ***** MVA limit of branch 95 - 96 not given, set to 0
% ***** MVA limit of branch 96 - 97 not given, set to 0
% ***** MVA limit of branch 98 - 100 not given, set to 0
% ***** MVA limit of branch 99 - 100 not given, set to 0
% ***** MVA limit of branch 100 - 101 not given, set to 0
% ***** MVA limit of branch 92 - 102 not given, set to 0
% ***** MVA limit of branch 101 - 102 not given, set to 0
% ***** MVA limit of branch 100 - 103 not given, set to 0
% ***** MVA limit of branch 100 - 104 not given, set to 0
% ***** MVA limit of branch 103 - 104 not given, set to 0
% ***** MVA limit of branch 103 - 105 not given, set to 0
% ***** MVA limit of branch 100 - 106 not given, set to 0
% ***** MVA limit of branch 104 - 105 not given, set to 0
% ***** MVA limit of branch 105 - 106 not given, set to 0
% ***** MVA limit of branch 105 - 107 not given, set to 0
% ***** MVA limit of branch 105 - 108 not given, set to 0
% ***** MVA limit of branch 106 - 107 not given, set to 0
% ***** MVA limit of branch 108 - 109 not given, set to 0
% ***** MVA limit of branch 103 - 110 not given, set to 0
% ***** MVA limit of branch 109 - 110 not given, set to 0
% ***** MVA limit of branch 110 - 111 not given, set to 0
% ***** MVA limit of branch 110 - 112 not given, set to 0
% ***** MVA limit of branch 17 - 113 not given, set to 0
% ***** MVA limit of branch 32 - 113 not given, set to 0
% ***** MVA limit of branch 32 - 114 not given, set to 0
% ***** MVA limit of branch 27 - 115 not given, set to 0
% ***** MVA limit of branch 114 - 115 not given, set to 0
% ***** MVA limit of branch 68 - 116 not given, set to 0
% ***** MVA limit of branch 12 - 117 not given, set to 0
% ***** MVA limit of branch 75 - 118 not given, set to 0
% ***** MVA limit of branch 76 - 118 not given, set to 0
